%chk=LICHM_0.chk
%Mem=256MB
%CPU=0-3
#P B3LYP/6-31G* SP Symmetry=None
Charge=angstroms Population=(MK,ReadRadii)

QMMM

0 1
O 0.87400000000000 0.00000000000000 -1.2470000000000
H 0.28800000000000 0.00000000000000 -2.0040000000000
H 0.28800000000000 0.00000000000000 -0.4900000000000

 -0.6854538014284 0.09354619857394 1.13199999999957 -0.0000000000000
 -0.6854538014260 -0.0935461985715 1.13199999999858 0.00000000000000
 -0.7789999999986 -0.0000000000006 1.26429430273000 0.00000000000000
 -0.8725461985715 -0.0935461985739 1.13200000000042 -0.0000000000000
 -0.8725461985739 0.09354619857151 1.13200000000141 -0.0000000000000
 -0.7790000000013 0.00000000000069 0.99970569726999 -0.0000000000000
 -0.5734538014284 0.85054619857394 1.70699999999957 -0.0000000000000
 -0.5734538014260 0.66345380142848 1.70699999999858 0.00000000000000
 -0.6669999999986 0.75699999999930 1.83929430273000 0.00000000000000
 -0.7605461985715 0.66345380142605 1.70700000000042 -0.0000000000000
 -0.7605461985739 0.85054619857151 1.70700000000141 -0.0000000000000
 -0.6670000000013 0.75700000000069 1.57470569727000 -0.0000000000000
 -0.5734538014284 -0.6634538014260 1.70699999999957 -0.0000000000000
 -0.5734538014260 -0.8505461985715 1.70699999999858 0.00000000000000
 -0.6669999999986 -0.7570000000006 1.83929430273000 0.00000000000000
 -0.7605461985715 -0.8505461985739 1.70700000000042 -0.0000000000000
 -0.7605461985739 -0.6634538014284 1.70700000000141 -0.0000000000000
 -0.6670000000013 -0.7569999999993 1.57470569727000 -0.0000000000000

